egret/models/tests/transmission_test_instances/pglib_opf_case30_ieee.json
{"elements": {"bus": {"1": {"matpower_bustype": "ref", "area": 1.0, "vm": 1.0, "va": 0.0, "base_kv": 132.0, "zone": 1.0, "v_min": 0.94, "v_max": 1.06}, "2": {"matpower_bustype": "PV", "area": 1.0, "vm": 1.0, "va": 0.0, "base_kv": 132.0, "zone": 1.0, "v_min": 0.94, "v_max": 1.06}, "3": {"matpower_bustype": "PQ", "area": 1.0, "vm": 1.0, "va": 0.0, "base_kv": 132.0, "zone": 1.0, "v_min": 0.94, "v_max": 1.06}, "4": {"matpower_bustype": "PQ", "area": 1.0, "vm": 1.0, "va": 0.0, "base_kv": 132.0, "zone": 1.0, "v_min": 0.94, "v_max": 1.06}, "5": {"matpower_bustype": "PV", "area": 1.0, "vm": 1.0, "va": 0.0, "base_kv": 132.0, "zone": 1.0, "v_min": 0.94, "v_max": 1.06}, "6": {"matpower_bustype": "PQ", "area": 1.0, "vm": 1.0, "va": 0.0, "base_kv": 132.0, "zone": 1.0, "v_min": 0.94, "v_max": 1.06}, "7": {"matpower_bustype": "PQ", "area": 1.0, "vm": 1.0, "va": 0.0, "base_kv": 132.0, "zone": 1.0, "v_min": 0.94, "v_max": 1.06}, "8": {"matpower_bustype": "PV", "area": 1.0, "vm": 1.0, "va": 0.0, "base_kv": 132.0, "zone": 1.0, "v_min": 0.94, "v_max": 1.06}, "9": {"matpower_bustype": "PQ", "area": 1.0, "vm": 1.0, "va": 0.0, "base_kv": 1.0, "zone": 1.0, "v_min": 0.94, "v_max": 1.06}, "10": {"matpower_bustype": "PQ", "area": 1.0, "vm": 1.0, "va": 0.0, "base_kv": 33.0, "zone": 1.0, "v_min": 0.94, "v_max": 1.06}, "11": {"matpower_bustype": "PV", "area": 1.0, "vm": 1.0, "va": 0.0, "base_kv": 11.0, "zone": 1.0, "v_min": 0.94, "v_max": 1.06}, "12": {"matpower_bustype": "PQ", "area": 1.0, "vm": 1.0, "va": 0.0, "base_kv": 33.0, "zone": 1.0, "v_min": 0.94, "v_max": 1.06}, "13": {"matpower_bustype": "PV", "area": 1.0, "vm": 1.0, "va": 0.0, "base_kv": 11.0, "zone": 1.0, "v_min": 0.94, "v_max": 1.06}, "14": {"matpower_bustype": "PQ", "area": 1.0, "vm": 1.0, "va": 0.0, "base_kv": 33.0, "zone": 1.0, "v_min": 0.94, "v_max": 1.06}, "15": {"matpower_bustype": "PQ", "area": 1.0, "vm": 1.0, "va": 0.0, "base_kv": 33.0, "zone": 1.0, "v_min": 0.94, "v_max": 1.06}, "16": {"matpower_bustype": "PQ", "area": 1.0, "vm": 1.0, "va": 0.0, "base_kv": 33.0, "zone": 1.0, "v_min": 0.94, "v_max": 1.06}, "17": {"matpower_bustype": "PQ", "area": 1.0, "vm": 1.0, "va": 0.0, "base_kv": 33.0, "zone": 1.0, "v_min": 0.94, "v_max": 1.06}, "18": {"matpower_bustype": "PQ", "area": 1.0, "vm": 1.0, "va": 0.0, "base_kv": 33.0, "zone": 1.0, "v_min": 0.94, "v_max": 1.06}, "19": {"matpower_bustype": "PQ", "area": 1.0, "vm": 1.0, "va": 0.0, "base_kv": 33.0, "zone": 1.0, "v_min": 0.94, "v_max": 1.06}, "20": {"matpower_bustype": "PQ", "area": 1.0, "vm": 1.0, "va": 0.0, "base_kv": 33.0, "zone": 1.0, "v_min": 0.94, "v_max": 1.06}, "21": {"matpower_bustype": "PQ", "area": 1.0, "vm": 1.0, "va": 0.0, "base_kv": 33.0, "zone": 1.0, "v_min": 0.94, "v_max": 1.06}, "22": {"matpower_bustype": "PQ", "area": 1.0, "vm": 1.0, "va": 0.0, "base_kv": 33.0, "zone": 1.0, "v_min": 0.94, "v_max": 1.06}, "23": {"matpower_bustype": "PQ", "area": 1.0, "vm": 1.0, "va": 0.0, "base_kv": 33.0, "zone": 1.0, "v_min": 0.94, "v_max": 1.06}, "24": {"matpower_bustype": "PQ", "area": 1.0, "vm": 1.0, "va": 0.0, "base_kv": 33.0, "zone": 1.0, "v_min": 0.94, "v_max": 1.06}, "25": {"matpower_bustype": "PQ", "area": 1.0, "vm": 1.0, "va": 0.0, "base_kv": 33.0, "zone": 1.0, "v_min": 0.94, "v_max": 1.06}, "26": {"matpower_bustype": "PQ", "area": 1.0, "vm": 1.0, "va": 0.0, "base_kv": 33.0, "zone": 1.0, "v_min": 0.94, "v_max": 1.06}, "27": {"matpower_bustype": "PQ", "area": 1.0, "vm": 1.0, "va": 0.0, "base_kv": 33.0, "zone": 1.0, "v_min": 0.94, "v_max": 1.06}, "28": {"matpower_bustype": "PQ", "area": 1.0, "vm": 1.0, "va": 0.0, "base_kv": 132.0, "zone": 1.0, "v_min": 0.94, "v_max": 1.06}, "29": {"matpower_bustype": "PQ", "area": 1.0, "vm": 1.0, "va": 0.0, "base_kv": 33.0, "zone": 1.0, "v_min": 0.94, "v_max": 1.06}, "30": {"matpower_bustype": "PQ", "area": 1.0, "vm": 1.0, "va": 0.0, "base_kv": 33.0, "zone": 1.0, "v_min": 0.94, "v_max": 1.06}}, "load": {"load_2": {"in_service": true, "p_load": 21.7, "q_load": 12.7, "bus": "2"}, "load_3": {"in_service": true, "p_load": 2.4, "q_load": 1.2, "bus": "3"}, "load_4": {"in_service": true, "p_load": 7.6, "q_load": 1.6, "bus": "4"}, "load_5": {"in_service": true, "p_load": 94.2, "q_load": 19.0, "bus": "5"}, "load_7": {"in_service": true, "p_load": 22.8, "q_load": 10.9, "bus": "7"}, "load_8": {"in_service": true, "p_load": 30.0, "q_load": 30.0, "bus": "8"}, "load_10": {"in_service": true, "p_load": 5.8, "q_load": 2.0, "bus": "10"}, "load_12": {"in_service": true, "p_load": 11.2, "q_load": 7.5, "bus": "12"}, "load_14": {"in_service": true, "p_load": 6.2, "q_load": 1.6, "bus": "14"}, "load_15": {"in_service": true, "p_load": 8.2, "q_load": 2.5, "bus": "15"}, "load_16": {"in_service": true, "p_load": 3.5, "q_load": 1.8, "bus": "16"}, "load_17": {"in_service": true, "p_load": 9.0, "q_load": 5.8, "bus": "17"}, "load_18": {"in_service": true, "p_load": 3.2, "q_load": 0.9, "bus": "18"}, "load_19": {"in_service": true, "p_load": 9.5, "q_load": 3.4, "bus": "19"}, "load_20": {"in_service": true, "p_load": 2.2, "q_load": 0.7, "bus": "20"}, "load_21": {"in_service": true, "p_load": 17.5, "q_load": 11.2, "bus": "21"}, "load_23": {"in_service": true, "p_load": 3.2, "q_load": 1.6, "bus": "23"}, "load_24": {"in_service": true, "p_load": 8.7, "q_load": 6.7, "bus": "24"}, "load_26": {"in_service": true, "p_load": 3.5, "q_load": 2.3, "bus": "26"}, "load_29": {"in_service": true, "p_load": 2.4, "q_load": 0.9, "bus": "29"}, "load_30": {"in_service": true, "p_load": 10.6, "q_load": 1.9, "bus": "30"}}, "shunt": {"shunt_10": {"shunt_type": "fixed", "bs": 19.0, "gs": 0.0, "bus": "10"}, "shunt_24": {"shunt_type": "fixed", "bs": 4.3, "gs": 0.0, "bus": "24"}}, "generator": {"1": {"bus": "1", "pg": 135.5, "qg": 5.0, "vg": 1.0, "mbase": 100.0, "in_service": true, "p_min": 0.0, "p_max": 271.0, "q_min": 0.0, "q_max": 10.0, "generator_type": "thermal", "p_cost": {"data_type": "cost_curve", "cost_curve_type": "polynomial", "values": {"0": 0.0, "1": 18.421528, "2": 0.0}}, "startup_cost": 0.0, "shutdown_cost": 0.0}, "2": {"bus": "2", "pg": 46.0, "qg": 3.0, "vg": 1.0, "mbase": 100.0, "in_service": true, "p_min": 0.0, "p_max": 92.0, "q_min": -40.0, "q_max": 46.0, "generator_type": "thermal", "p_cost": {"data_type": "cost_curve", "cost_curve_type": "polynomial", "values": {"0": 0.0, "1": 52.182254, "2": 0.0}}, "startup_cost": 0.0, "shutdown_cost": 0.0}, "3": {"bus": "5", "pg": 0.0, "qg": 0.0, "vg": 1.0, "mbase": 100.0, "in_service": true, "p_min": 0.0, "p_max": 0.0, "q_min": -40.0, "q_max": 40.0, "generator_type": "thermal", "p_cost": {"data_type": "cost_curve", "cost_curve_type": "polynomial", "values": {"0": 0.0, "1": 0.0, "2": 0.0}}, "startup_cost": 0.0, "shutdown_cost": 0.0}, "4": {"bus": "8", "pg": 0.0, "qg": 15.0, "vg": 1.0, "mbase": 100.0, "in_service": true, "p_min": 0.0, "p_max": 0.0, "q_min": -10.0, "q_max": 40.0, "generator_type": "thermal", "p_cost": {"data_type": "cost_curve", "cost_curve_type": "polynomial", "values": {"0": 0.0, "1": 0.0, "2": 0.0}}, "startup_cost": 0.0, "shutdown_cost": 0.0}, "5": {"bus": "11", "pg": 0.0, "qg": 9.0, "vg": 1.0, "mbase": 100.0, "in_service": true, "p_min": 0.0, "p_max": 0.0, "q_min": -6.0, "q_max": 24.0, "generator_type": "thermal", "p_cost": {"data_type": "cost_curve", "cost_curve_type": "polynomial", "values": {"0": 0.0, "1": 0.0, "2": 0.0}}, "startup_cost": 0.0, "shutdown_cost": 0.0}, "6": {"bus": "13", "pg": 0.0, "qg": 9.0, "vg": 1.0, "mbase": 100.0, "in_service": true, "p_min": 0.0, "p_max": 0.0, "q_min": -6.0, "q_max": 24.0, "generator_type": "thermal", "p_cost": {"data_type": "cost_curve", "cost_curve_type": "polynomial", "values": {"0": 0.0, "1": 0.0, "2": 0.0}}, "startup_cost": 0.0, "shutdown_cost": 0.0}}, "branch": {"1": {"from_bus": "1", "to_bus": "2", "resistance": 0.0192, "reactance": 0.0575, "charging_susceptance": 0.0528, "branch_type": "line", "rating_long_term": 138.0, "rating_short_term": 138.0, "rating_emergency": 138.0, "in_service": true, "angle_diff_min": -30.0, "angle_diff_max": 30.0, "pf": null, "qf": null, "pt": null, "qt": null}, "2": {"from_bus": "1", "to_bus": "3", "resistance": 0.0452, "reactance": 0.1652, "charging_susceptance": 0.0408, "branch_type": "line", "rating_long_term": 152.0, "rating_short_term": 152.0, "rating_emergency": 152.0, "in_service": true, "angle_diff_min": -30.0, "angle_diff_max": 30.0, "pf": null, "qf": null, "pt": null, "qt": null}, "3": {"from_bus": "2", "to_bus": "4", "resistance": 0.057, "reactance": 0.1737, "charging_susceptance": 0.0368, "branch_type": "line", "rating_long_term": 139.0, "rating_short_term": 139.0, "rating_emergency": 139.0, "in_service": true, "angle_diff_min": -30.0, "angle_diff_max": 30.0, "pf": null, "qf": null, "pt": null, "qt": null}, "4": {"from_bus": "3", "to_bus": "4", "resistance": 0.0132, "reactance": 0.0379, "charging_susceptance": 0.0084, "branch_type": "line", "rating_long_term": 135.0, "rating_short_term": 135.0, "rating_emergency": 135.0, "in_service": true, "angle_diff_min": -30.0, "angle_diff_max": 30.0, "pf": null, "qf": null, "pt": null, "qt": null}, "5": {"from_bus": "2", "to_bus": "5", "resistance": 0.0472, "reactance": 0.1983, "charging_susceptance": 0.0418, "branch_type": "line", "rating_long_term": 144.0, "rating_short_term": 144.0, "rating_emergency": 144.0, "in_service": true, "angle_diff_min": -30.0, "angle_diff_max": 30.0, "pf": null, "qf": null, "pt": null, "qt": null}, "6": {"from_bus": "2", "to_bus": "6", "resistance": 0.0581, "reactance": 0.1763, "charging_susceptance": 0.0374, "branch_type": "line", "rating_long_term": 139.0, "rating_short_term": 139.0, "rating_emergency": 139.0, "in_service": true, "angle_diff_min": -30.0, "angle_diff_max": 30.0, "pf": null, "qf": null, "pt": null, "qt": null}, "7": {"from_bus": "4", "to_bus": "6", "resistance": 0.0119, "reactance": 0.0414, "charging_susceptance": 0.009, "branch_type": "line", "rating_long_term": 148.0, "rating_short_term": 148.0, "rating_emergency": 148.0, "in_service": true, "angle_diff_min": -30.0, "angle_diff_max": 30.0, "pf": null, "qf": null, "pt": null, "qt": null}, "8": {"from_bus": "5", "to_bus": "7", "resistance": 0.046, "reactance": 0.116, "charging_susceptance": 0.0204, "branch_type": "line", "rating_long_term": 127.0, "rating_short_term": 127.0, "rating_emergency": 127.0, "in_service": true, "angle_diff_min": -30.0, "angle_diff_max": 30.0, "pf": null, "qf": null, "pt": null, "qt": null}, "9": {"from_bus": "6", "to_bus": "7", "resistance": 0.0267, "reactance": 0.082, "charging_susceptance": 0.017, "branch_type": "line", "rating_long_term": 140.0, "rating_short_term": 140.0, "rating_emergency": 140.0, "in_service": true, "angle_diff_min": -30.0, "angle_diff_max": 30.0, "pf": null, "qf": null, "pt": null, "qt": null}, "10": {"from_bus": "6", "to_bus": "8", "resistance": 0.012, "reactance": 0.042, "charging_susceptance": 0.009, "branch_type": "line", "rating_long_term": 148.0, "rating_short_term": 148.0, "rating_emergency": 148.0, "in_service": true, "angle_diff_min": -30.0, "angle_diff_max": 30.0, "pf": null, "qf": null, "pt": null, "qt": null}, "11": {"from_bus": "6", "to_bus": "9", "resistance": 0.0, "reactance": 0.208, "charging_susceptance": 0.0, "transformer_tap_ratio": 0.978, "transformer_phase_shift": 0.0, "branch_type": "transformer", "rating_long_term": 142.0, "rating_short_term": 142.0, "rating_emergency": 142.0, "in_service": true, "angle_diff_min": -30.0, "angle_diff_max": 30.0, "pf": null, "qf": null, "pt": null, "qt": null}, "12": {"from_bus": "6", "to_bus": "10", "resistance": 0.0, "reactance": 0.556, "charging_susceptance": 0.0, "transformer_tap_ratio": 0.969, "transformer_phase_shift": 0.0, "branch_type": "transformer", "rating_long_term": 53.0, "rating_short_term": 53.0, "rating_emergency": 53.0, "in_service": true, "angle_diff_min": -30.0, "angle_diff_max": 30.0, "pf": null, "qf": null, "pt": null, "qt": null}, "13": {"from_bus": "9", "to_bus": "11", "resistance": 0.0, "reactance": 0.208, "charging_susceptance": 0.0, "transformer_tap_ratio": 1.0, "transformer_phase_shift": 0.0, "branch_type": "transformer", "rating_long_term": 142.0, "rating_short_term": 142.0, "rating_emergency": 142.0, "in_service": true, "angle_diff_min": -30.0, "angle_diff_max": 30.0, "pf": null, "qf": null, "pt": null, "qt": null}, "14": {"from_bus": "9", "to_bus": "10", "resistance": 0.0, "reactance": 0.11, "charging_susceptance": 0.0, "transformer_tap_ratio": 1.0, "transformer_phase_shift": 0.0, "branch_type": "transformer", "rating_long_term": 267.0, "rating_short_term": 267.0, "rating_emergency": 267.0, "in_service": true, "angle_diff_min": -30.0, "angle_diff_max": 30.0, "pf": null, "qf": null, "pt": null, "qt": null}, "15": {"from_bus": "4", "to_bus": "12", "resistance": 0.0, "reactance": 0.256, "charging_susceptance": 0.0, "transformer_tap_ratio": 0.932, "transformer_phase_shift": 0.0, "branch_type": "transformer", "rating_long_term": 115.0, "rating_short_term": 115.0, "rating_emergency": 115.0, "in_service": true, "angle_diff_min": -30.0, "angle_diff_max": 30.0, "pf": null, "qf": null, "pt": null, "qt": null}, "16": {"from_bus": "12", "to_bus": "13", "resistance": 0.0, "reactance": 0.14, "charging_susceptance": 0.0, "transformer_tap_ratio": 1.0, "transformer_phase_shift": 0.0, "branch_type": "transformer", "rating_long_term": 210.0, "rating_short_term": 210.0, "rating_emergency": 210.0, "in_service": true, "angle_diff_min": -30.0, "angle_diff_max": 30.0, "pf": null, "qf": null, "pt": null, "qt": null}, "17": {"from_bus": "12", "to_bus": "14", "resistance": 0.1231, "reactance": 0.2559, "charging_susceptance": 0.0, "branch_type": "line", "rating_long_term": 29.0, "rating_short_term": 29.0, "rating_emergency": 29.0, "in_service": true, "angle_diff_min": -30.0, "angle_diff_max": 30.0, "pf": null, "qf": null, "pt": null, "qt": null}, "18": {"from_bus": "12", "to_bus": "15", "resistance": 0.0662, "reactance": 0.1304, "charging_susceptance": 0.0, "branch_type": "line", "rating_long_term": 29.0, "rating_short_term": 29.0, "rating_emergency": 29.0, "in_service": true, "angle_diff_min": -30.0, "angle_diff_max": 30.0, "pf": null, "qf": null, "pt": null, "qt": null}, "19": {"from_bus": "12", "to_bus": "16", "resistance": 0.0945, "reactance": 0.1987, "charging_susceptance": 0.0, "branch_type": "line", "rating_long_term": 30.0, "rating_short_term": 30.0, "rating_emergency": 30.0, "in_service": true, "angle_diff_min": -30.0, "angle_diff_max": 30.0, "pf": null, "qf": null, "pt": null, "qt": null}, "20": {"from_bus": "14", "to_bus": "15", "resistance": 0.221, "reactance": 0.1997, "charging_susceptance": 0.0, "branch_type": "line", "rating_long_term": 20.0, "rating_short_term": 20.0, "rating_emergency": 20.0, "in_service": true, "angle_diff_min": -30.0, "angle_diff_max": 30.0, "pf": null, "qf": null, "pt": null, "qt": null}, "21": {"from_bus": "16", "to_bus": "17", "resistance": 0.0524, "reactance": 0.1923, "charging_susceptance": 0.0, "branch_type": "line", "rating_long_term": 38.0, "rating_short_term": 38.0, "rating_emergency": 38.0, "in_service": true, "angle_diff_min": -30.0, "angle_diff_max": 30.0, "pf": null, "qf": null, "pt": null, "qt": null}, "22": {"from_bus": "15", "to_bus": "18", "resistance": 0.1073, "reactance": 0.2185, "charging_susceptance": 0.0, "branch_type": "line", "rating_long_term": 29.0, "rating_short_term": 29.0, "rating_emergency": 29.0, "in_service": true, "angle_diff_min": -30.0, "angle_diff_max": 30.0, "pf": null, "qf": null, "pt": null, "qt": null}, "23": {"from_bus": "18", "to_bus": "19", "resistance": 0.0639, "reactance": 0.1292, "charging_susceptance": 0.0, "branch_type": "line", "rating_long_term": 29.0, "rating_short_term": 29.0, "rating_emergency": 29.0, "in_service": true, "angle_diff_min": -30.0, "angle_diff_max": 30.0, "pf": null, "qf": null, "pt": null, "qt": null}, "24": {"from_bus": "19", "to_bus": "20", "resistance": 0.034, "reactance": 0.068, "charging_susceptance": 0.0, "branch_type": "line", "rating_long_term": 29.0, "rating_short_term": 29.0, "rating_emergency": 29.0, "in_service": true, "angle_diff_min": -30.0, "angle_diff_max": 30.0, "pf": null, "qf": null, "pt": null, "qt": null}, "25": {"from_bus": "10", "to_bus": "20", "resistance": 0.0936, "reactance": 0.209, "charging_susceptance": 0.0, "branch_type": "line", "rating_long_term": 30.0, "rating_short_term": 30.0, "rating_emergency": 30.0, "in_service": true, "angle_diff_min": -30.0, "angle_diff_max": 30.0, "pf": null, "qf": null, "pt": null, "qt": null}, "26": {"from_bus": "10", "to_bus": "17", "resistance": 0.0324, "reactance": 0.0845, "charging_susceptance": 0.0, "branch_type": "line", "rating_long_term": 33.0, "rating_short_term": 33.0, "rating_emergency": 33.0, "in_service": true, "angle_diff_min": -30.0, "angle_diff_max": 30.0, "pf": null, "qf": null, "pt": null, "qt": null}, "27": {"from_bus": "10", "to_bus": "21", "resistance": 0.0348, "reactance": 0.0749, "charging_susceptance": 0.0, "branch_type": "line", "rating_long_term": 30.0, "rating_short_term": 30.0, "rating_emergency": 30.0, "in_service": true, "angle_diff_min": -30.0, "angle_diff_max": 30.0, "pf": null, "qf": null, "pt": null, "qt": null}, "28": {"from_bus": "10", "to_bus": "22", "resistance": 0.0727, "reactance": 0.1499, "charging_susceptance": 0.0, "branch_type": "line", "rating_long_term": 29.0, "rating_short_term": 29.0, "rating_emergency": 29.0, "in_service": true, "angle_diff_min": -30.0, "angle_diff_max": 30.0, "pf": null, "qf": null, "pt": null, "qt": null}, "29": {"from_bus": "21", "to_bus": "22", "resistance": 0.0116, "reactance": 0.0236, "charging_susceptance": 0.0, "branch_type": "line", "rating_long_term": 29.0, "rating_short_term": 29.0, "rating_emergency": 29.0, "in_service": true, "angle_diff_min": -30.0, "angle_diff_max": 30.0, "pf": null, "qf": null, "pt": null, "qt": null}, "30": {"from_bus": "15", "to_bus": "23", "resistance": 0.1, "reactance": 0.202, "charging_susceptance": 0.0, "branch_type": "line", "rating_long_term": 29.0, "rating_short_term": 29.0, "rating_emergency": 29.0, "in_service": true, "angle_diff_min": -30.0, "angle_diff_max": 30.0, "pf": null, "qf": null, "pt": null, "qt": null}, "31": {"from_bus": "22", "to_bus": "24", "resistance": 0.115, "reactance": 0.179, "charging_susceptance": 0.0, "branch_type": "line", "rating_long_term": 26.0, "rating_short_term": 26.0, "rating_emergency": 26.0, "in_service": true, "angle_diff_min": -30.0, "angle_diff_max": 30.0, "pf": null, "qf": null, "pt": null, "qt": null}, "32": {"from_bus": "23", "to_bus": "24", "resistance": 0.132, "reactance": 0.27, "charging_susceptance": 0.0, "branch_type": "line", "rating_long_term": 29.0, "rating_short_term": 29.0, "rating_emergency": 29.0, "in_service": true, "angle_diff_min": -30.0, "angle_diff_max": 30.0, "pf": null, "qf": null, "pt": null, "qt": null}, "33": {"from_bus": "24", "to_bus": "25", "resistance": 0.1885, "reactance": 0.3292, "charging_susceptance": 0.0, "branch_type": "line", "rating_long_term": 27.0, "rating_short_term": 27.0, "rating_emergency": 27.0, "in_service": true, "angle_diff_min": -30.0, "angle_diff_max": 30.0, "pf": null, "qf": null, "pt": null, "qt": null}, "34": {"from_bus": "25", "to_bus": "26", "resistance": 0.2544, "reactance": 0.38, "charging_susceptance": 0.0, "branch_type": "line", "rating_long_term": 25.0, "rating_short_term": 25.0, "rating_emergency": 25.0, "in_service": true, "angle_diff_min": -30.0, "angle_diff_max": 30.0, "pf": null, "qf": null, "pt": null, "qt": null}, "35": {"from_bus": "25", "to_bus": "27", "resistance": 0.1093, "reactance": 0.2087, "charging_susceptance": 0.0, "branch_type": "line", "rating_long_term": 28.0, "rating_short_term": 28.0, "rating_emergency": 28.0, "in_service": true, "angle_diff_min": -30.0, "angle_diff_max": 30.0, "pf": null, "qf": null, "pt": null, "qt": null}, "36": {"from_bus": "28", "to_bus": "27", "resistance": 0.0, "reactance": 0.396, "charging_susceptance": 0.0, "transformer_tap_ratio": 0.968, "transformer_phase_shift": 0.0, "branch_type": "transformer", "rating_long_term": 75.0, "rating_short_term": 75.0, "rating_emergency": 75.0, "in_service": true, "angle_diff_min": -30.0, "angle_diff_max": 30.0, "pf": null, "qf": null, "pt": null, "qt": null}, "37": {"from_bus": "27", "to_bus": "29", "resistance": 0.2198, "reactance": 0.4153, "charging_susceptance": 0.0, "branch_type": "line", "rating_long_term": 28.0, "rating_short_term": 28.0, "rating_emergency": 28.0, "in_service": true, "angle_diff_min": -30.0, "angle_diff_max": 30.0, "pf": null, "qf": null, "pt": null, "qt": null}, "38": {"from_bus": "27", "to_bus": "30", "resistance": 0.3202, "reactance": 0.6027, "charging_susceptance": 0.0, "branch_type": "line", "rating_long_term": 28.0, "rating_short_term": 28.0, "rating_emergency": 28.0, "in_service": true, "angle_diff_min": -30.0, "angle_diff_max": 30.0, "pf": null, "qf": null, "pt": null, "qt": null}, "39": {"from_bus": "29", "to_bus": "30", "resistance": 0.2399, "reactance": 0.4533, "charging_susceptance": 0.0, "branch_type": "line", "rating_long_term": 28.0, "rating_short_term": 28.0, "rating_emergency": 28.0, "in_service": true, "angle_diff_min": -30.0, "angle_diff_max": 30.0, "pf": null, "qf": null, "pt": null, "qt": null}, "40": {"from_bus": "8", "to_bus": "28", "resistance": 0.0636, "reactance": 0.2, "charging_susceptance": 0.0428, "branch_type": "line", "rating_long_term": 140.0, "rating_short_term": 140.0, "rating_emergency": 140.0, "in_service": true, "angle_diff_min": -30.0, "angle_diff_max": 30.0, "pf": null, "qf": null, "pt": null, "qt": null}, "41": {"from_bus": "6", "to_bus": "28", "resistance": 0.0169, "reactance": 0.0599, "charging_susceptance": 0.013, "branch_type": "line", "rating_long_term": 149.0, "rating_short_term": 149.0, "rating_emergency": 149.0, "in_service": true, "angle_diff_min": -30.0, "angle_diff_max": 30.0, "pf": null, "qf": null, "pt": null, "qt": null}}}, "system": {"model_name": "pglib_opf_case30_ieee", "mpc_version": "'2'", "baseMVA": 100.0, "reference_bus": "1", "reference_bus_angle": 0.0}}